MATDSS_ver0.95/DSS_Files/Other DSS Files/Old Files/MATDSS_Modified_4Bus-DY-Bal.DSS
clear

! IEEE 4-bus test case   D-Y Stepdown Balanced
! Based on script developed by Alan Dunn and Steve Sparling

new circuit.4busDYBal   basekV=12.47 phases=3 
! **** HAVE TO STIFFEN THE SOURCE UP A LITTLE; THE TEST CASE ASSUMES AN INFINITE BUS
~ mvasc3=200000 200000
!~ mvasc3=2000 2000

! **** DEFINE WIRE DATA 
new wiredata.conductor Runits=mi Rac=0.306 GMRunits=ft GMRac=0.0244  Radunits=in Diam=0.721 
new wiredata.neutral   Runits=mi Rac=0.592 GMRunits=ft GMRac=0.00814 Radunits=in Diam=0.563 

! **** DEFINE LINE GEOMETRY; REDUCE OUT THE NEUTRAL
new linegeometry.4wire nconds=4 nphases=3 reduce=yes 
~ cond=1 wire=conductor units=ft x=-4   h=28 
~ cond=2 wire=conductor units=ft x=-1.5 h=28 
~ cond=3 wire=conductor units=ft x=3    h=28 
~ cond=4 wire=neutral   units=ft x=0    h=24 

! **** 12.47 KV LINE
!new line.line1 geometry=4wire length=2000 units=ft bus1=sourcebus bus2=n2
new line.line1 geometry=4wire length=200 units=ft bus1=sourcebus bus2=n2

! **** 3-PHASE STEP-DOWN TRANSFORMER 12.47/4.16 KV Delta-Ygrd
!new transformer.t1 xhl=6
new transformer.t1 xhl=3
~ wdg=1 bus=n2 conn=delta kV=12.47 kVA=6000 %r=0.05
~ wdg=2 bus=n3 conn=wye   kV=4.16  kVA=6000 %r=0.05 
!~ wdg=1 bus=n2 conn=delta kV=12.47 kVA=6000 %r=0.5
!~ wdg=2 bus=n3 conn=wye   kV=4.16  kVA=6000 %r=0.5 

! **** 4.16 KV LINE
new line.line2 bus1=n3 bus2=n4 geometry=4wire length=250 units=ft NormAmps=900
new line.line3 bus1=n4 bus2=n5 geometry=4wire length=250 units=ft NormAmps=900
!new line.line4 bus1=n5 bus2=n6 geometry=4wire length=250 units=ft NormAmps=900

!new line.line2 bus1=n3 bus2=n4 geometry=4wire length=2500 units=ft  

! **** WYE-CONNECTED 4.16 KV LOAD
new load.load1 phases=3 bus1=n4 conn=wye kV=4.16 kW=5400 pf=0.8  model=1 Vminpu=0.75
new load.load2 phases=3 bus1=n3 conn=wye kV=4.16 kW=0 pf=0.8  model=1 Vminpu=0.75



!new load.load2 phases=1 bus1=n4.2 conn=wye kV=4.16 kW=400 pf=0.9  model=1
! **** HAVE TO ALLOW P, Q TO REMAIN CONSTANT TO ABOUT .79 PU -- THIS IS ASSUMED IN TEST CASE
! **** DEFAULT IN DSS IS .95, BELOW WHICH IT REVERTS TO LINEAR MODEL
~ vminpu=0.75   ! model will remain const p,q down to 0.75 pu voltage    

set voltagebases=[12.47, 4.16] 
calcvoltagebases     ! **** let DSS compute voltage bases
!set tolerance = 0.00000001
solve

! Various reports ...
!Show Voltage  LL Nodes
!show voltages LN Nodes 
!show currents resid=yes elements  ! this shows sum of phase currents
!Show Powers kva Elements


